$ for import
INIT MASTER(S)
$ Normal Mode Analysis of Goland Wing
$ Dec 4, 2014
SOL 144
TIME 5
CEND
TITLE = Goland wing - Dr.Kolony example
SUBTITLE = SYMMETRIC FLIGHT CONDITIONS, DOUBLET-LATTICE AERO
LABEL = SEMI-SPAN MODEL
WEIGHTCHECK = YES
ECHO    = SORT
SPC     = 1   $ SYMMETRIC CONSTRAINTS
 SUPORT1 = 250
$  DISP    = ALL   $ PRINT ALL DISPLACEMENTS
$  STRESS  = ALL   $ PRINT ALL STRESSES
$   TRIMF = ALL
$   FORCE   = ALL   $ PRINT ALL FORCES
$   AEROF   = ALL   $ PRINT ALL AERODYNAMIC FORCES
$   APRES   = ALL   $ PRINT ALL AERODYNAMIC PRESSURES
SUBCASE 1
  TRIM = 1        $ HIGH SPEED LEVEL FLIGHT
BEGIN BULK
PARAM,POST,0
PARAM   WTMASS  .031081
PARAM   AUNITS  .031081
$ 
param,grdpnt,0
PARAM, SDUNIT, 53$ output unit for csv file
PARAM, SDCSV, 63
param,ldsum,1 $ control for csv output
param,xyunit,54 $ output unit for csv file   
$1------$2------$3------$4------$5------$6------$7------$8------$9------$10-----
$==================== WING BEAM MODEL =================================
$GRDSET                                                  126                    
$EIGRL	1                       10      0
GRID    1               0.      0.      0.
GRID    3               0.      2.5     0.
GRID    5               0.      5.0     0.
GRID    7               0.      7.5     0.
GRID    9               0.      10.0    0.
GRID    11              0.      12.5    0.
GRID    13              0.      15.0    0.
GRID    15              0.      17.5    0.
GRID    17              0.      20.0    0.
$
MAT1    221     1.E7    1.E6            359.98
$
CBAR    201     210     1       3       0.      0.      1.              
                        0.6     0.      0.      0.6     0.      0.          
CBAR    202     210     3       5       0.      0.      1.              
                        0.6     0.      0.      0.6     0.      0.          
CBAR    203     210     5       7       0.      0.      1.              
                        0.6     0.      0.      0.6     0.      0.          
CBAR    204     210     7       9       0.      0.      1.              
                        0.6     0.      0.      0.6     0.      0.          
CBAR    205     210     9       11      0.      0.      1.              
                        0.6     0.      0.      0.6     0.      0.          
CBAR    206     210     11      13      0.      0.      1.              
                        0.6     0.      0.      0.6     0.      0.          
CBAR    207     210     13      15      0.      0.      1.              
                        0.6     0.      0.      0.6     0.      0.          
CBAR    208     210     15      17      0.      0.      1.             
                        0.6     0.      0.      0.6     0.      0.   
$ massless point
$ nodes for spline
GRID    101             -1.98   0.      0.
GRID    103             -1.98   2.5     0.
GRID    105             -1.98   5.0     0.
GRID    107             -1.98   7.5     0.
GRID    109             -1.98   10.0    0.
GRID    111             -1.98   12.5    0.
GRID    113             -1.98   15.0    0.
GRID    115             -1.98   17.5    0.
GRID    117             -1.98   20.0    0.
GRID    201             4.02    0.      0.
GRID    203             4.02    2.5     0.
GRID    205             4.02    5.0     0.
GRID    207             4.02    7.5     0.
GRID    209             4.02    10.0    0.
GRID    211             4.02    12.5    0.
GRID    213             4.02    15.0    0.
GRID    215             4.02    17.5    0.
GRID    217             4.02    20.0    0.			
$ RBE3
RBE2    10101   1       345     101
RBE2    10103   3       345     103
RBE2    10105   5       345     105
RBE2    10107   7       345     107
RBE2    10109   9       345     109
RBE2    10111   11      345     111
RBE2    10113   13      345     113
RBE2    10115   15      345     115
RBE2    10117   17      345     117
$
RBE2    20201   1       345     201
RBE2    20203   3       345     203
RBE2    20205   5       345     205
RBE2    20207   7       345     207
RBE2    20209   9       345     209
RBE2    20211   11      345     211
RBE2    20213   13      345     213
RBE2    20215   15      345     215
RBE2    20217   17      345     217			
$1------$2------$3------$4------$5------$6------$7------$8------$9------
$CONM2	101     1               0.0
$        0.0     0.0     1010.44 0.0     0.0     0.0  
$CONM2	103     3               0.0
$        0.0     0.0     2020.87 0.0     0.0     0.0  
$CONM2	105     5               0.0
$        0.0     0.0     2020.87 0.0     0.0     0.0  
$CONM2	107     7               0.0
$        0.0     0.0     2020.87 0.0     0.0     0.0  
$CONM2	109     9               0.0
$        0.0     0.0     2020.87 0.0     0.0     0.0  
$CONM2	111     11              0.0
$        0.0     0.0     2020.87 0.0     0.0     0.0  
$CONM2	113     13              0.0
$        0.0     0.0     2020.87 0.0     0.0     0.0  
$CONM2	115     15              0.0
$        0.0     0.0     2020.87 0.0     0.0     0.0      
$CONM2	117     17              0.0
$        0.0     0.0     1010.44 0.0     0.0     0.0  		
CMASS2  101     1012.58 1       5
CMASS2  103     2025.15 3       5
CMASS2  105     2025.15 5       5
CMASS2  107     2025.15 7       5
CMASS2  109     2025.15 9       5
CMASS2  111     2025.15 11      5
CMASS2  113     2025.15 13      5
CMASS2  115     2025.15 15      5
CMASS2  117     1012.58 17      5
$ PBAR		
$       PID     MID     A       I1      I2      J       NSM
PBAR    210     221     1.0     2.365   2.365   2.39
$1------$2------$3------$4------$5------$6------$7------$8------$9------
$1------$2------$3------$4------$5------$6------$7------$8------$9------
$ GRID 300-500 IS POINT FOR HORIZONTAL TAIL
GRID    200             0.6     0.0     0.0
$GRID    300             14.02   0.0     0.0
GRID    401             15.52   0.0     0.0  
GRID    402             15.52   1.50    0.0
GRID    403             15.52   3.00    0.0
GRID    404             15.52   4.50    0.0
GRID    405             15.52   6.00    0.0
$ tail beam
CBAR    401     200     401     402     0.      0.      1.0
CBAR    402     200     402     403     0.      0.      1.0
CBAR    403     200     403     404     0.      0.      1.0 
CBAR    404     200     404     405     0.      0.      1.0

GRID    1401            14.02   0.0     0.0  
GRID    1402            14.02   1.50    0.0
GRID    1403            14.02   3.00    0.0
GRID    1404            14.02   4.50    0.0
GRID    1405            14.02   6.00    0.0
$
GRID    2401            17.02   0.0     0.0  
GRID    2402            17.02   1.50    0.0
GRID    2403            17.02   3.00    0.0
GRID    2404            17.02   4.50    0.0
GRID    2405            17.02   6.00    0.0
$
RBE2    1401    401     345     1401
RBE2    1402    402     345     1402
RBE2    1403    403     345     1403
RBE2    1404    404     345     1404
RBE2    1405    405     345     1405
$
RBE2    2401    401     345     2401
RBE2    2402    402     345     2402
RBE2    2403    403     345     2403
RBE2    2404    404     345     2404
RBE2    2405    405     345     2405
$
$
$1------$2------$3------$4------$5------$6------$7------$8------$9------
$1------$2------$3------$4------$5------$6------$7------$8------$9------
$ Fuselage
CBAR    301     200     1       200     0.      0.      1.
CBAR    302     200     200     401     0.      0.      1.  
$ CBAR    303     200     300     500     0.      0.      1.    
$         
PBAR    200     200     1.0     2.365   2.365   2.39
MAT1    200     1.E10   1.E9           
SUPORT1, 250, 200, 35
SPC1    1       1246    1                   
$SPC1    5       34      3       THRU    17
$SPC1    34      5       3       THRU    17
$SPCADD  2       1       34  
$SPCADD  3       1       5 
$
$===============  AEROELASTIC MODEL =====================================
$ A semi-span model is defined
$
$       ACSID   RCSID   REFC    REFB    REFS    SYMXZ   SYMXY
AEROS   0       0       6.      40.     240.	1
$       CID     RID     A1      A2      A3      B1      B2      B3
CORD2R  100     0       .6      0.0     0.0     .6      0.0     10.0
        1.0     0.0     10.0
$===================================================================
$            Goland  Beam Aero element
$===================================================================
PAERO1  100001
AEFACT  1       0.      .0333   .0667   .1481   .2296   .3111   .3926
        .4741   .5555   .637    .7185   .8      .8333   .8667   .9
        .9333   .9667   1.
$
$ works for flap number parameteric study
$
$ CAERO1  100001  100001          48                      1       1     
$         -1.98   0.      0.      6.      -1.98   20.     0.      6.
$
$ SPLINE2 10      100001  100001  100680  100     0.      1.      1
$         -1.     -1.
SPLINE4 10      100001  100001          100             IPS     BOTH
$ AELIST  100001  100001  THRU    100680
SET1    100     1       3       5       7       9       11      13
        15      17      101     103     105     107     109     111
        113     115     201     203     205     207     209     211 	
        213     215 		
$       CID     RID     A1      A2      A3      B1      B2      B3
CORD2R  1       0       .0      0.0     0.0     .0      0.0     10.0    +CRD200
$       C1      C2      C3
+CRD200 1.0     0.0     10.0
$ ===================================================================
$                   Horizontal Tail spline
$ ===================================================================
$ Control Device: elevator
$
AESURF  500     ELEV    2       200                     
$
$ AELIST  200     200001  THRU    200060
$
$ CENTER
CORD2R  2       0       14.77   0.0     0.0     14.77   0.0     10.0    +CRD100
+CRD100 15.77   0       10.0
$
$1------$2------$3------$4------$5------$6------$7------$8------$9------$10-----
PAERO1  200001
$ CAERO1  200001  200001  0       12      5                       2       +SPC
$ +SPC    14.02   0.      0.      3.      14.02   6.      0.      3.
SPLINE4 32      200001  200001          200             IPS     BOTH 
$ SPLINE2 32      200001  200001  200060  1000    0.      1.      2       +SPC
$ +SPC    1.      -1.
$
AELIST  200001  200001  THRU    200060  
SET1    200     401     402     403     404     405     1401    1402
        1403    1404    1405    2401    2402    2403    2404    2405 
$===================================================================
$                         Trim analysis
$===================================================================
$ BODY RIGID TRIM VARIABLES
AESTAT  501     ANGLEA
AESTAT  502     PITCH
AESTAT  503     URDD3
$AESTAT  504     URDD5     
$==============================================================================
$1------$1------$1------$1------$1------$1------$1------$1------$1------$1------
$AECOMP  WING    CAERO1  100001
$MONPNT1 IWING   WING STRIP IN THE MAIN WING
$        35      WING
$MONCNCM FWING   GOLAND WING
$                100001
$MONCNCM ELEVR   HORIZONTAL TAILS
$                200001				
$$ ========================= Surfaces for trailing flaps =========================
$$
INCLUDE 'AESURF.DAT'
$
$ Control Device: flap1
$
$ AESURF  2       flap1   1       2                       1.
$         1.2     1.2     
$ AELIST  2       100012  100013  100014  100015  100016  100017  100029
$         100030  100031  100032  100033  100034
$ $
$ $ Control Device: flap2
$ $
$ AESURF  13      flap2   1       13                      1.
$         1.2     1.2     
$ AELIST  13      100046  100047  100048  100049  100050  100051  100063
$         100064  100065  100066  100067  100068
$ $
$ $ Control Device: flap3
$ $
$ AESURF  15      flap3   1       15                      1.
$         1.2     1.2     
$ AELIST  15      100080  100081  100082  100083  100084  100085  100097
$         100098  100099  100100  100101  100102
$ $
$ $ Control Device: flap4
$ $
$ AESURF  16      flap4   1       16                      1.
$         1.2     1.2     
$ AELIST  16      100114  100115  100116  100117  100118  100119  100131
$         100132  100133  100134  100135  100136
$ $
$ $ Control Device: flap5
$ $
$ AESURF  17      flap5   1       17                      1.
$         1.2     1.2     
$ AELIST  17      100148  100149  100150  100151  100152  100153  100165
$         100166  100167  100168  100169  100170
$ $
$ $ Control Device: flap6
$ $
$ AESURF  18      flap6   1       18                      1.
$         1.2     1.2     
$ AELIST  18      100182  100183  100184  100185  100186  100187  100199
$         100200  100201  100202  100203  100204
$ $
$ $ Control Device: flap7
$ $
$ AESURF  19      flap7   1       19                      1.
$         1.2     1.2     
$ AELIST  19      100216  100217  100218  100219  100220  100221  100233
$         100234  100235  100236  100237  100238
$ $
$ $ Control Device: flap8
$ $
$ AESURF  20      flap8   1       20                      1.
$         1.2     1.2     
$ AELIST  20      100250  100251  100252  100253  100254  100255  100267
$         100268  100269  100270  100271  100272
$ $
$ $ Control Device: flap9
$ $
$ AESURF  21      flap9   1       21                      1.
$         1.2     1.2     
$ AELIST  21      100284  100285  100286  100287  100288  100289  100301
$         100302  100303  100304  100305  100306
$ $ Control Device: flap10
$ $
$ AESURF  3       flap10  1       3                       1.
$         1.2     1.2     
$ AELIST  3       100318  100319  100320  100321  100322  100323  100335
$         100336  100337  100338  100339  100340
$ $
$ $ Control Device: flap11
$ $
$ AESURF  4       flap11  1       4                       1.
$         1.2     1.2     
$ AELIST  4       100352  100353  100354  100355  100356  100357  100369
$         100370  100371  100372  100373  100374
$ $
$ $ Control Device: flap12
$ $
$ AESURF  5       flap12  1       5                       1.
$         1.2     1.2     
$ AELIST  5       100386  100387  100388  100389  100390  100391  100403
$         100404  100405  100406  100407  100408
$ $
$ $ Control Device: flap13
$ $
$ AESURF  6       flap13  1       6                       1.
$         1.2     1.2     
$ AELIST  6       100420  100421  100422  100423  100424  100425  100437
$         100438  100439  100440  100441  100442
$ $
$ $ Control Device: flap14
$ $
$ AESURF  7       flap14  1       7                       1.
$         1.2     1.2     
$ AELIST  7       100454  100455  100456  100457  100458  100459  100471
$         100472  100473  100474  100475  100476
$ $
$ $ Control Device: flap15
$ $
$ AESURF  8       flap15  1       8                       1.
$         1.2     1.2     
$ AELIST  8       100488  100489  100490  100491  100492  100493  100505
$         100506  100507  100508  100509  100510
$ $
$ $ Control Device: flap16
$ $
$ AESURF  9       flap16  1       9                       1.
$         1.2     1.2     
$ AELIST  9       100522  100523  100524  100525  100526  100527  100539
$         100540  100541  100542  100543  100544
$ $
$ $ Control Device: flap17
$ $
$ AESURF  10      flap17  1       10                      1.
$         1.2     1.2     
$ AELIST  10      100556  100557  100558  100559  100560  100561  100573
$         100574  100575  100576  100577  100578
$ $
$ $ Control Device: flap18
$ $
$ AESURF  11      flap18  1       11                      1.
$         1.2     1.2     
$ AELIST  11      100590  100591  100592  100593  100594  100595  100607
$         100608  100609  100610  100611  100612
$ $
$ $ Control Device: flap19
$ $
$ AESURF  12      flap19  1       12                      1.
$         1.2     1.2     
$ AELIST  12      100624  100625  100626  100627  100628  100629  100641
$         100642  100643  100644  100645  100646
$ $
$ $ Control Device: flap20
$ $
$ AESURF  14      flap20  1       14                      1.
$         1.2     1.2     
$ AELIST  14      100658  100659  100660  100661  100662  100663  100675
$         100676  100677  100678  100679  100680
$
$
$1------$2------$3------$4------$5------$6------$7------$8------$9------$10-----
$1------$2------$3------$4------$5------$6------$7------$8------$9------$10-----
$ TRIM    1       0.7     322.0   PITCH   0.0000  URDD3   1.0             +TR1A
$ +TR1A   flap20  -0.01716flap1   0.025356flap2   0.012540flap3   0.006421+TR1B
$ +TR1B   flap4   0.022327flap5   0.006337flap6   0.006614flap7   0.042804+TR1C
$ +TR1C   flap8   0.026610flap9   0.017398flap10  0.005116flap11  0.010921+TR1D
$ +TR1D   flap12  -0.00152flap13  -0.00044flap14  0.001685flap15  -0.01085+TR1E
$ +TR1E   flap16  -0.00843flap17  -0.04364flap18  -0.01587flap19  -0.01434
$
$MONCNCM ALL     ALL STRIPS
$                all
$ENDDATA
$====================================================
$                   TRIM ANALYSIS
$====================================================
$1......2.......3.......4.......5.......6.......7.......8.......9.......0
$ ---- 1G LOAD or others loads ----
TRIM ,   1   ,  0.7    ,322.     ,  URDD3,1.      , PITCH ,0.      ,  ,  +TR1A
+TR1A,flap1   ,0.048666,flap2   ,0.048417,flap3   ,0.048047,flap4   ,0.047502,+TR1B
+TR1B,flap5   ,0.046891,flap6   ,0.046309,flap7   ,0.048211,flap8   ,0.045882,+TR1C
+TR1C,flap9   ,0.044559,flap10  ,0.043106,flap11  ,0.041580,flap12  ,0.039903,+TR1D
+TR1D,flap13  ,0.038095,flap14  ,0.036125,flap15  ,0.033963,flap16  ,0.031642,+TR1E
+TR1E,flap17  ,0.028971,flap18  ,0.026062,flap19  ,0.022840,flap20  ,0.018716
MONCNCM ALL     ALL STRIPS
                all
ENDDATA d2dbc08c
